[General]
network = Network
sim-time-limit = 0.5 
